 .Sol file Watershed HRU:3 Subbasin:3 HRU:1 Luse:WETF Soil: 415191 Slope: 0-2 12/28/2016 12:00:00 AM ArcSWAT 2012.10_0.14
 Soil Name: Water
 Soil Hydrologic Group: D
 Maximum rooting depth(m) :   25.40
 Porosity fraction from which anions are excluded: 0.500
 Crack volume potential of soil: 0.500
 Texture 1                : water
 Depth                [mm]:       25.40
 Bulk Density Moist [g/cc]:        0.00
 Ave. AW Incl. Rock Frag  :        0.00
 Ksat. (est.)      [mm/hr]:      600.00
 Organic Carbon [weight %]:        0.00
 Clay           [weight %]:        0.00
 Silt           [weight %]:        0.00
 Sand           [weight %]:        0.00
 Rock Fragments   [vol. %]:        0.00
 Soil Albedo (Moist)      :        0.23
 Erosion K                :        0.00
 Salinity (EC, Form 5)    :        0.00
 Soil pH                  :        5.00
 Soil CACO3               :        0.00
                              
