 .Sol file Watershed HRU:4 Subbasin:4 HRU:1 Luse:WETF Soil: 415178 Slope: 0-2 12/28/2016 12:00:00 AM ArcSWAT 2012.10_0.14
 Soil Name: Croswell
 Soil Hydrologic Group: A
 Maximum rooting depth(m) : 1520.00
 Porosity fraction from which anions are excluded: 0.500
 Crack volume potential of soil: 0.500
 Texture 1                : S-S-S
 Depth                [mm]:       50.00      990.00     1520.00
 Bulk Density Moist [g/cc]:        1.43        1.50        1.58
 Ave. AW Incl. Rock Frag  :        0.08        0.08        0.06
 Ksat. (est.)      [mm/hr]:      331.20      331.20      331.20
 Organic Carbon [weight %]:        0.73        0.15        0.15
 Clay           [weight %]:        5.00        5.00        5.00
 Silt           [weight %]:        1.40        1.40        1.40
 Sand           [weight %]:       93.60       93.60       93.60
 Rock Fragments   [vol. %]:       10.00       10.00       10.00
 Soil Albedo (Moist)      :        0.23        0.23        0.23
 Erosion K                :        0.15        0.15        0.15
 Salinity (EC, Form 5)    :        0.00        0.00        0.00
 Soil pH                  :        5.10        5.90        6.80
 Soil CACO3               :        0.00        0.00        0.00
                              
