 .Sol file Watershed HRU:2 Subbasin:2 HRU:1 Luse:PAST Soil: 415121 Slope: 0-2 12/28/2016 12:00:00 AM ArcSWAT 2012.10_0.14
 Soil Name: Deer Park
 Soil Hydrologic Group: A
 Maximum rooting depth(m) : 1520.00
 Porosity fraction from which anions are excluded: 0.500
 Crack volume potential of soil: 0.500
 Texture 1                : FS-FS-S
 Depth                [mm]:      200.00     1300.00     1520.00
 Bulk Density Moist [g/cc]:        1.43        1.50        1.48
 Ave. AW Incl. Rock Frag  :        0.06        0.05        0.04
 Ksat. (est.)      [mm/hr]:      331.20      331.20      331.20
 Organic Carbon [weight %]:        0.44        0.15        0.15
 Clay           [weight %]:        5.00        5.00        5.00
 Silt           [weight %]:        0.60        0.60        1.40
 Sand           [weight %]:       94.40       94.40       93.60
 Rock Fragments   [vol. %]:        0.00        0.00        0.00
 Soil Albedo (Moist)      :        0.16        0.16        0.16
 Erosion K                :        0.15        0.15        0.15
 Salinity (EC, Form 5)    :        0.00        0.00        0.00
 Soil pH                  :        4.80        5.80        5.80
 Soil CACO3               :        0.00        0.00        0.00
                              
