 .Sol file Watershed HRU:7 Subbasin:7 HRU:1 Luse:FRSE Soil: 627458 Slope: 0-2 12/28/2016 12:00:00 AM ArcSWAT 2012.10_0.14
 Soil Name: Rubicon
 Soil Hydrologic Group: A
 Maximum rooting depth(m) : 2030.00
 Porosity fraction from which anions are excluded: 0.500
 Crack volume potential of soil: 0.500
 Texture 1                : SPM-S-S-S-S
 Depth                [mm]:       50.00      130.00      760.00      970.00     2030.00
 Bulk Density Moist [g/cc]:        0.20        1.43        1.45        1.55        1.55
 Ave. AW Incl. Rock Frag  :        0.45        0.07        0.07        0.04        0.04
 Ksat. (est.)      [mm/hr]:      331.20      331.20      331.20      331.20      331.20
 Organic Carbon [weight %]:       40.60        0.32        1.16        0.15        0.15
 Clay           [weight %]:       15.00        2.50        2.50        2.50        2.50
 Silt           [weight %]:       50.00        1.50        1.50        1.50        1.50
 Sand           [weight %]:       35.00       96.00       96.00       96.00       96.00
 Rock Fragments   [vol. %]:        0.00        1.00        2.00        3.00        3.00
 Soil Albedo (Moist)      :        0.37        0.37        0.37        0.37        0.37
 Erosion K                :        0.00        0.15        0.15        0.15        0.15
 Salinity (EC, Form 5)    :        0.00        0.00        0.00        0.00        0.00
 Soil pH                  :        4.50        5.20        5.70        6.20        6.20
 Soil CACO3               :        0.00        0.00        0.00        0.00        0.00
                              
